results/time_series/baseline_pf/spd_s_4w/year=2023_stride=4_K=17520/tables/worst_timestep_bus_voltages_k=33.csv
bus,va,vb,vc,vmin,vmax
225,0.9563383182557064,0.9861172939498208,1.0112156073008272,0.9563383182557064,1.0112156073008272
219,0.9575409745236843,0.986128271349195,1.0112293878535987,0.9575409745236843,1.0112293878535987
32,0.9575911423719718,0.9861172939498208,1.0112156073008272,0.9575911423719718,1.0112156073008272
96,0.9578357254833392,0.9861172939498208,1.0112156073008272,0.9578357254833392,1.0112156073008272
6,0.9579971668077261,0.9861172939498208,1.0112156073008272,0.9579971668077261,1.0112156073008272
82,0.9579971668077261,0.9861172939498208,1.0112156073008272,0.9579971668077261,1.0112156073008272
71,0.9584379827149309,0.9861172939498208,1.0112156073008272,0.9584379827149309,1.0112156073008272
35,0.9588021204678381,0.9838647953622693,1.0112156073008272,0.9588021204678381,1.0112156073008272
80,0.9589729318269646,0.9837612836600607,1.0112156073008272,0.9589729318269646,1.0112156073008272
231,0.9593155991014068,0.9839326871274148,1.0112156073008272,0.9593155991014068,1.0112156073008272
137,0.9593186034985809,0.9838647953622693,1.0112156073008272,0.9593186034985809,1.0112156073008272
208,0.9593186034985809,0.9838647953622693,1.0112156073008272,0.9593186034985809,1.0112156073008272
103,0.9593650779205557,0.9837612836600607,1.0112156073008272,0.9593650779205557,1.0112156073008272
115,0.9593650779205557,0.9833372029557559,1.0112156073008272,0.9593650779205557,1.0112156073008272
54,0.9593991260665607,0.9837944882307125,1.0112156073008272,0.9593991260665607,1.0112156073008272
41,0.9593991260665607,0.9837944882307125,1.0112156073008272,0.9593991260665607,1.0112156073008272
252,0.9594431631424662,0.9838445606248156,1.0112203801337372,0.9594431631424662,1.0112203801337372
56,0.9594712194179013,0.9838647953622693,1.0112156073008272,0.9594712194179013,1.0112156073008272
156,0.9596198246434967,0.9861172939498208,1.0112156073008272,0.9596198246434967,1.0112156073008272
20,0.9596800481615391,0.9839326871274148,1.0112156073008272,0.9596800481615391,1.0112156073008272
11,0.9600266586811171,0.9861172939498208,1.0112156073008272,0.9600266586811171,1.0112156073008272
159,0.9607382357555532,0.9841906999708571,1.0112156073008272,0.9607382357555532,1.0112156073008272
83,0.9607382357555532,0.9841906999708571,1.0112156073008272,0.9607382357555532,1.0112156073008272
91,0.9608066152901911,0.9843349124374164,1.0112156073008272,0.9608066152901911,1.0112156073008272
244,0.9613297712894189,0.9843349124374164,1.0112156073008272,0.9613297712894189,1.0112156073008272
30,0.9613403094572722,0.9842951982638511,1.0111868844315735,0.9613403094572722,1.0111868844315735
150,0.961601275178124,0.9861172939498208,1.0112156073008272,0.961601275178124,1.0112156073008272
3,0.9617958693156914,0.984693316544032,1.0112156073008272,0.9617958693156914,1.0112156073008272
207,0.9619570749513228,0.9861172939498208,1.0112156073008272,0.9619570749513228,1.0112156073008272
216,0.9622488045200434,0.984693316544032,1.0112156073008272,0.9622488045200434,1.0112156073008272
118,0.9624221182312076,0.9793195092603676,1.0127416194260777,0.9624221182312076,1.0127416194260777
5,0.9624378977205409,0.9788844573313586,1.0127416194260777,0.9624378977205409,1.0127416194260777
129,0.9624597884083319,0.9793195092603676,1.0127416194260777,0.9624597884083319,1.0127416194260777
10,0.9625869821107618,0.9788844573313586,1.0127416194260777,0.9625869821107618,1.0127416194260777
62,0.9625869821107618,0.9788844573313586,1.0127416194260777,0.9625869821107618,1.0127416194260777
144,0.9626253411314396,0.9788844573313586,1.0127416194260777,0.9626253411314396,1.0127416194260777
149,0.9626449319013858,0.9788844573313586,1.0127416194260777,0.9626449319013858,1.0127416194260777
97,0.9626449319013858,0.9786824418006004,1.0127416194260777,0.9626449319013858,1.0127416194260777
195,0.9627098368515505,0.978948283960152,1.0127416194260777,0.9627098368515505,1.0127416194260777
130,0.9627098368515505,0.9786823537226377,1.0127416194260777,0.9627098368515505,1.0127416194260777
245,0.9627098368515505,0.9786937700346002,1.0127416194260777,0.9627098368515505,1.0127416194260777
175,0.9628356673472008,0.9793195092603676,1.0127416194260777,0.9628356673472008,1.0127416194260777
133,0.9628356673472008,0.9787803571265885,1.0127416194260777,0.9628356673472008,1.0127416194260777
9,0.9629125045512642,0.9799241547470022,1.0127416194260777,0.9629125045512642,1.0127416194260777
42,0.9631643700793411,0.9849909675958535,1.0112156073008272,0.9631643700793411,1.0112156073008272
185,0.9631643700793411,0.9847470512021678,1.0112156073008272,0.9631643700793411,1.0112156073008272
22,0.9631643700793411,0.9845829282578881,1.0112156073008272,0.9631643700793411,1.0112156073008272
86,0.9632967904833846,0.9799241547470022,1.0127416194260777,0.9632967904833846,1.0127416194260777
170,0.9633824764206628,0.980008435090333,1.0127416194260777,0.9633824764206628,1.0127416194260777
236,0.9633824764206628,0.9797956287277896,1.0127416194260777,0.9633824764206628,1.0127416194260777
237,0.9635098040551553,0.9804508929330479,1.0127416194260777,0.9635098040551553,1.0127416194260777
40,0.9637289335549097,0.9804411410898922,1.0127439225657282,0.9637289335549097,1.0127439225657282
191,0.9637424377036632,0.9804508929330479,1.0127416194260777,0.9637424377036632,1.0127416194260777
258,0.9639314691429443,0.985364884156673,1.0112156073008272,0.9639314691429443,1.0112156073008272
239,0.9639314691429443,0.985364884156673,1.0112156073008272,0.9639314691429443,1.0112156073008272
4,0.9639314691429443,0.985364884156673,1.0112156073008272,0.9639314691429443,1.0112156073008272
193,0.9640125524652385,0.9852881384671618,1.0112156073008272,0.9640125524652385,1.0112156073008272
94,0.9640125524652385,0.9861172939498208,1.0112156073008272,0.9640125524652385,1.0112156073008272
14,0.9644016239150774,0.980991293725729,1.0127416194260777,0.9644016239150774,1.0127416194260777
15,0.9644016239150774,0.9804076412288557,1.0127416194260777,0.9644016239150774,1.0127416194260777
246,0.9644016239150774,0.980816670538489,1.0127416194260777,0.9644016239150774,1.0127416194260777
178,0.9646315526994148,0.9857061077409758,1.0112156073008272,0.9646315526994148,1.0112156073008272
141,0.9651600797899907,0.9828300726347594,1.0127416194260777,0.9651600797899907,1.0127416194260777
256,0.9653211444332452,0.9825257566381038,1.0127416194260777,0.9653211444332452,1.0127416194260777
211,0.9655821517979607,0.9828300726347594,1.0127416194260777,0.9655821517979607,1.0127416194260777
17,0.9657393793319133,0.9824228278399622,1.0127416194260777,0.9657393793319133,1.0127416194260777
64,0.9657393793319133,0.9825257566381038,1.0127416194260777,0.9657393793319133,1.0127416194260777
138,0.9657393793319133,0.9821522353893313,1.0127416194260777,0.9657393793319133,1.0127416194260777
117,0.9659831300346052,0.9833892864531552,1.0127416194260777,0.9659831300346052,1.0127416194260777
127,0.9660102026624983,0.9828300726347594,1.0127416194260777,0.9660102026624983,1.0127416194260777
104,0.9663139108659253,0.9865648162837397,1.0112156073008272,0.9663139108659253,1.0112156073008272
135,0.966325411621344,0.9833892864531552,1.0127416194260777,0.966325411621344,1.0127416194260777
171,0.9663390270290861,0.9865382311107388,1.0112156073008272,0.9663390270290861,1.0112156073008272
253,0.9664464835448036,0.9865905941124439,1.0112156073008272,0.9664464835448036,1.0112156073008272
263,0.9664464835448036,0.9865905941124439,1.0112156073008272,0.9664464835448036,1.0112156073008272
212,0.9664978606153123,0.9833892864531552,1.0127416194260777,0.9664978606153123,1.0127416194260777
259,0.9665787888651735,0.9833892864531552,1.0127416194260777,0.9665787888651735,1.0127416194260777
36,0.9672106973031983,0.9868060358240717,1.0111138326504137,0.9672106973031983,1.0111138326504137
119,0.9672607027483129,0.9845730490230267,1.0127416194260777,0.9672607027483129,1.0127416194260777
222,0.9678357522428717,0.9845730490230267,1.0127416194260777,0.9678357522428717,1.0127416194260777
25,0.9680823497047275,0.9845730490230267,1.0127416194260777,0.9680823497047275,1.0127416194260777
28,0.9684494696573499,0.9849200889735502,1.0127416194260777,0.9684494696573499,1.0127416194260777
45,0.9686109442494027,0.9849200889735502,1.0127416194260777,0.9686109442494027,1.0127416194260777
199,0.9689074122405528,0.9853323086450945,1.0127416194260777,0.9689074122405528,1.0127416194260777
243,0.9690338750309023,0.9853323086450945,1.0127416194260777,0.9690338750309023,1.0127416194260777
110,0.9692909261124434,0.9853323086450945,1.0127416194260777,0.9692909261124434,1.0127416194260777
26,0.9716390961644293,0.9865666653700332,1.0127416194260777,0.9716390961644293,1.0127416194260777
205,0.9742760957527562,0.987952549281079,1.0127416194260777,0.9742760957527562,1.0127416194260777
89,0.9743437447295961,0.9879915423398586,1.0127289181386465,0.9743437447295961,1.0127289181386465
113,0.974784220447836,0.9886548378472274,1.0125129412331209,0.974784220447836,1.0125129412331209
126,0.9748070903379098,0.9884973262961926,1.0125642152557903,0.9748070903379098,1.0125642152557903
52,0.9749326104238141,0.9883309906624155,1.0126183709396803,0.9749326104238141,1.0126183709396803
238,0.9749326104238141,0.9883309906624155,1.0126183709396803,0.9749326104238141,1.0126183709396803
188,0.9752211371260144,0.9884973262961926,1.0125642152557903,0.9752211371260144,1.0125642152557903
241,0.9755995257961735,0.9886548378472274,1.0125129412331209,0.9755995257961735,1.0125129412331209
134,0.9760208791141435,0.9901951479683615,1.0111138326504137,0.9760208791141435,1.0111138326504137
46,0.9766099262347544,0.989238496577684,1.0123230191785133,0.9766099262347544,1.0123230191785133
93,0.976783037910257,0.9901951479683615,1.0111138326504137,0.976783037910257,1.0111138326504137
84,0.9773911561115863,0.989238496577684,1.0123230191785133,0.9773911561115863,1.0123230191785133
174,0.9793284218425238,0.9907230999013957,1.0129503709763015,0.9793284218425238,1.0129503709763015
155,0.979520585978831,0.9907230999013957,1.0129503709763015,0.979520585978831,1.0129503709763015
157,0.9796008936699443,0.9907230999013957,1.0129503709763015,0.9796008936699443,1.0129503709763015
186,0.9796008936699443,0.9907230999013957,1.0129503709763015,0.9796008936699443,1.0129503709763015
167,0.9796557622244504,0.9907230999013957,1.0129503709763015,0.9796557622244504,1.0129503709763015
38,0.9797075642723293,0.989858666576294,1.0121213433004617,0.9797075642723293,1.0121213433004617
74,0.9797075642723293,0.989215938198209,1.0121213433004617,0.9797075642723293,1.0121213433004617
201,0.9798491359977012,0.9914908286088467,1.0111138326504137,0.9798491359977012,1.0111138326504137
124,0.9802972961826626,0.9901203445384404,1.0120700139639742,0.9802972961826626,1.0120700139639742
23,0.9804968323946152,0.9902262020592848,1.0120879317048777,0.9804968323946152,1.0120879317048777
81,0.9807691088955809,0.9903470155893798,1.0120642367415857,0.9807691088955809,1.0120642367415857
194,0.9807691088955809,0.9903470155893798,1.0120642367415857,0.9807691088955809,1.0120642367415857
153,0.9807705355642481,0.9914908286088467,1.0111138326504137,0.9807705355642481,1.0111138326504137
7,0.9809694632551094,0.9907637751437823,1.011982510358224,0.9809694632551094,1.011982510358224
227,0.9816647554979655,0.9917592909008143,1.0111138326504137,0.9816647554979655,1.0111138326504137
261,0.9816647554979655,0.9917592909008143,1.0111138326504137,0.9816647554979655,1.0111138326504137
262,0.9817083332794797,0.9907637751437823,1.011982510358224,0.9817083332794797,1.011982510358224
90,0.9847401591330894,0.9917399299960562,1.0111138326504137,0.9847401591330894,1.0111138326504137
114,0.9847401591330894,0.9926823368121791,1.0111138326504137,0.9847401591330894,1.0111138326504137
251,0.9849362937081036,0.992004605649747,1.0117442442994424,0.9849362937081036,1.0117442442994424
31,0.9849362937081036,0.9913055083655372,1.0117442442994424,0.9849362937081036,1.0117442442994424
21,0.9873218233639454,0.9962113839932986,1.0111138326504137,0.9873218233639454,1.0111138326504137
13,0.987380657827932,0.993670882396701,1.0111138326504137,0.987380657827932,1.0111138326504137
76,0.9874013553489511,0.9937422280543392,1.0115034492338117,0.9874013553489511,1.0115034492338117
61,0.9879801088809114,0.9962113839932986,1.0111138326504137,0.9879801088809114,1.0111138326504137
192,0.9880816980414521,0.9962113839932986,1.0111138326504137,0.9880816980414521,1.0111138326504137
177,0.9880816980414521,0.9962113839932986,1.0111138326504137,0.9880816980414521,1.0111138326504137
257,0.9880816980414521,0.9962113839932986,1.0111138326504137,0.9880816980414521,1.0111138326504137
180,0.9880816980414521,0.9962113839932986,1.0111138326504137,0.9880816980414521,1.0111138326504137
265,0.9880816980414521,0.9962113839932986,1.0111138326504137,0.9880816980414521,1.0111138326504137
148,0.9880816980414521,0.9962113839932986,1.0111138326504137,0.9880816980414521,1.0111138326504137
18,0.9880816980414521,0.9962113839932986,1.0111138326504137,0.9880816980414521,1.0111138326504137
102,0.988138678737637,0.9962113839932986,1.0111138326504137,0.988138678737637,1.0111138326504137
121,0.988138678737637,0.9962113839932986,1.0111138326504137,0.988138678737637,1.0111138326504137
255,0.9881654196464636,0.9937237241237541,1.0115059839507494,0.9881654196464636,1.0115059839507494
125,0.9881998034765418,0.9937422280543392,1.0115034492338117,0.9881998034765418,1.0115034492338117
111,0.988287073567666,0.9962113839932986,1.0111138326504137,0.988287073567666,1.0111138326504137
250,0.98845179547711,0.9940718045866033,1.0111138326504137,0.98845179547711,1.0111138326504137
209,0.98845179547711,0.9931179012855781,1.0111138326504137,0.98845179547711,1.0111138326504137
16,0.9884794898129192,0.9962113839932986,1.0111138326504137,0.9884794898129192,1.0111138326504137
228,0.9884987870291595,0.9962113839932986,1.0111138326504137,0.9884987870291595,1.0111138326504137
77,0.989016558590854,0.9962113839932986,1.0111138326504137,0.989016558590854,1.0111138326504137
47,0.989275373722337,0.992079094035187,1.010956717251968,0.989275373722337,1.010956717251968
202,0.9892962907953625,0.9962113839932986,1.0111138326504137,0.9892962907953625,1.0111138326504137
215,0.9894105871440028,0.991728955418985,1.010956717251968,0.9894105871440028,1.010956717251968
75,0.9899638672918769,0.9894645476557975,1.010956717251968,0.9894645476557975,1.010956717251968
206,0.9899638672918769,0.9895223214236547,1.010956717251968,0.9895223214236547,1.010956717251968
112,0.9896987130607763,0.992079094035187,1.010956717251968,0.9896987130607763,1.010956717251968
123,0.9896987130607763,0.992079094035187,1.010956717251968,0.9896987130607763,1.010956717251968
12,0.9897159476701616,0.992079094035187,1.010956717251968,0.9897159476701616,1.010956717251968
67,0.9897159476701616,0.992079094035187,1.010956717251968,0.9897159476701616,1.010956717251968
107,0.9898219997617361,0.9962113839932986,1.0111138326504137,0.9898219997617361,1.0111138326504137
197,0.9899638672918769,0.989920571686161,1.010956717251968,0.989920571686161,1.010956717251968
143,0.9899638672918769,0.9902740809803597,1.010956717251968,0.9899638672918769,1.010956717251968
131,0.9899638672918769,0.9902740809803597,1.010956717251968,0.9899638672918769,1.010956717251968
224,0.9899638672918769,0.9905177190844446,1.010956717251968,0.9899638672918769,1.010956717251968
68,0.9899638672918769,0.991728955418985,1.010956717251968,0.9899638672918769,1.010956717251968
65,0.989972302496691,0.992079094035187,1.010956717251968,0.989972302496691,1.010956717251968
66,0.989972302496691,0.9917033161474509,1.010956717251968,0.989972302496691,1.010956717251968
249,0.9901415982678325,0.9962113839932986,1.0111138326504137,0.9901415982678325,1.0111138326504137
2,0.9901415982678325,0.9962113839932986,1.0111138326504137,0.9901415982678325,1.0111138326504137
200,0.9901736313500323,0.9922799167306484,1.010956717251968,0.9901736313500323,1.010956717251968
220,0.9901736313500323,0.9922799167306484,1.010956717251968,0.9901736313500323,1.010956717251968
232,0.9903047174019319,0.9924106732013334,1.010956717251968,0.9903047174019319,1.010956717251968
51,0.9904166637886463,0.9909405897872737,1.0110787604742213,0.9904166637886463,1.0110787604742213
100,0.9904286338890035,0.9962113839932986,1.0111138326504137,0.9904286338890035,1.0111138326504137
254,0.990619013042823,0.9928817541263809,1.010956717251968,0.990619013042823,1.010956717251968
106,0.9911996576607552,0.9906371685406525,1.0108591897558867,0.9906371685406525,1.0108591897558867
142,0.9911933371633826,0.990661505861824,1.0108768035883209,0.990661505861824,1.0108768035883209
158,0.9911933371633826,0.990661505861824,1.0108768035883209,0.990661505861824,1.0108768035883209
147,0.9911693480071752,0.9907539065481545,1.0109436694669793,0.9907539065481545,1.0109436694669793
183,0.991162843330337,0.9907789497832538,1.01096179486797,0.9907789497832538,1.01096179486797
181,0.991159652845526,0.9907912370545816,1.010970686961131,0.9907912370545816,1.010970686961131
27,0.991159652845526,0.9907912370545816,1.010970686961131,0.9907912370545816,1.010970686961131
49,0.9909135322757885,0.9909405897872737,1.0110787604742213,0.9909135322757885,1.0110787604742213
116,0.9911208821285323,0.9909405897872737,1.0110787604742213,0.9909405897872737,1.0110787604742213
179,0.9911341841473239,0.9910158819917542,1.0111138326504137,0.9910158819917542,1.0111138326504137
160,0.9911091990152467,0.9962113839932986,1.0111138326504137,0.9911091990152467,1.0111138326504137
60,0.9911627055685246,0.9936965802778059,1.010956717251968,0.9911627055685246,1.010956717251968
164,0.9911689460599244,0.9937192951483417,1.010965986552368,0.9911689460599244,1.010965986552368
198,0.9911707229565428,0.9937257626192076,1.0109686257321064,0.9911707229565428,1.0109686257321064
87,0.991252133264359,0.9947265240152637,1.0109686257321064,0.991252133264359,1.0109686257321064
140,0.9912861836292609,0.9962113839932986,1.0111138326504137,0.9912861836292609,1.0111138326504137
43,0.9913253857978782,0.993957583171392,1.0109686257321064,0.9913253857978782,1.0109686257321064
242,0.9913253857978782,0.993957583171392,1.0109686257321064,0.9913253857978782,1.0109686257321064
210,0.9913253857978782,0.993957583171392,1.0109686257321064,0.9913253857978782,1.0109686257321064
48,0.9916755631171764,0.992098429593678,1.0111138326504137,0.9916755631171764,1.0111138326504137
73,0.9916755631171764,0.9919808208954335,1.0111138326504137,0.9916755631171764,1.0111138326504137
187,0.9918358447557075,0.992578963088905,1.0111138326504137,0.9918358447557075,1.0111138326504137
247,0.9918383801959507,0.9947265240152637,1.0109686257321064,0.9918383801959507,1.0109686257321064
173,0.992037684119923,0.9931841082650686,1.0111138326504137,0.992037684119923,1.0111138326504137
240,0.992037684119923,0.9931841082650686,1.0111138326504137,0.992037684119923,1.0111138326504137
230,0.9921867684907457,0.9954398165456642,1.0109686257321064,0.9921867684907457,1.0109686257321064
146,0.9925516319725535,0.9954398165456642,1.0109686257321064,0.9925516319725535,1.0109686257321064
139,0.9926136391174268,0.9949665987331666,1.0111138326504137,0.9926136391174268,1.0111138326504137
221,0.9926136391174268,0.9959379000905723,1.0111138326504137,0.9926136391174268,1.0111138326504137
57,0.992703779516792,0.9951813153943339,1.0111138326504137,0.992703779516792,1.0111138326504137
217,0.992703779516792,0.9951813153943339,1.0111138326504137,0.992703779516792,1.0111138326504137
79,0.992703779516792,0.9951813153943339,1.0111138326504137,0.992703779516792,1.0111138326504137
53,0.9928321014456422,0.9962113839932986,1.0111138326504137,0.9928321014456422,1.0111138326504137
72,0.9929566604658662,0.9962213127078331,1.0111639403224455,0.9929566604658662,1.0111639403224455
169,0.9929571385155553,0.9961173057678152,1.0111138326504137,0.9929571385155553,1.0111138326504137
99,0.9929571385155553,0.9961173057678152,1.0111138326504137,0.9929571385155553,1.0111138326504137
50,0.9929636238472336,0.9962113839932986,1.0111138326504137,0.9929636238472336,1.0111138326504137
78,0.9929875646514902,0.9960322814285482,1.0111138326504137,0.9929875646514902,1.0111138326504137
248,0.9930472910448844,0.9962113839932986,1.0111138326504137,0.9930472910448844,1.0111138326504137
108,0.9934855539500931,0.995980188287551,1.0111639403224455,0.9934855539500931,1.0111639403224455
234,0.9934855539500931,0.9962213127078331,1.0111639403224455,0.9934855539500931,1.0111639403224455
128,0.9936749558109684,0.9962836719380167,1.0109737229350506,0.9936749558109684,1.0109737229350506
203,0.993703458924605,0.9963042679207228,1.0109686257321064,0.993703458924605,1.0109686257321064
58,0.9938976665245969,0.9967203703934413,1.0111138326504137,0.9938976665245969,1.0111138326504137
196,0.9941309884536944,0.9965565275973761,1.0111272553817705,0.9941309884536944,1.0111272553817705
132,0.9941309884536944,0.9965565275973761,1.0111272553817705,0.9941309884536944,1.0111272553817705
165,0.9941970150125808,0.9970503252928478,1.0109686257321064,0.9941970150125808,1.0109686257321064
213,0.9949452397991937,0.9970503252928478,1.0109686257321064,0.9949452397991937,1.0109686257321064
105,0.9951707433858386,0.9971632894055126,1.0109686257321064,0.9951707433858386,1.0109686257321064
136,0.9951707433858386,0.9971632894055126,1.0109686257321064,0.9951707433858386,1.0109686257321064
88,0.9954295139155352,0.9977513020058467,1.0111138326504137,0.9954295139155352,1.0111138326504137
176,0.9956200373781833,0.9977513020058467,1.0111138326504137,0.9956200373781833,1.0111138326504137
98,0.9959238930730565,0.9983876127928903,1.0111138326504137,0.9959238930730565,1.0111138326504137
44,0.9960454080006265,0.9981999636412411,1.0111138326504137,0.9960454080006265,1.0111138326504137
172,0.9968942607993886,0.9983876127928903,1.0111138326504137,0.9968942607993886,1.0111138326504137
29,0.9968942607993886,0.9983876127928903,1.0111138326504137,0.9968942607993886,1.0111138326504137
154,0.9969454417840276,0.9981999636412411,1.0111138326504137,0.9969454417840276,1.0111138326504137
85,0.9972555768309853,0.9981793240782563,1.0109497126022082,0.9972555768309853,1.0109497126022082
163,0.9974866854207848,0.9983232934993401,1.0109686257321064,0.9974866854207848,1.0109686257321064
63,0.997570620191776,0.9983667942924245,1.0109864692560615,0.997570620191776,1.0109864692560615
233,0.9975888769256092,0.9983812007046394,1.0109841708160245,0.9975888769256092,1.0109841708160245
24,0.9977137821143852,0.9984519762456712,1.0110031704382243,0.9977137821143852,1.0110031704382243
226,0.997780334820927,0.9990674233171327,1.011048381901423,0.997780334820927,1.011048381901423
8,0.998079758612396,0.998665389156041,1.0110512646800212,0.998079758612396,1.0110512646800212
184,0.998175886963988,0.9990674233171327,1.011048381901423,0.998175886963988,1.011048381901423
166,0.998175886963988,0.9990674233171327,1.011048381901423,0.998175886963988,1.011048381901423
70,0.9983146677902828,0.9989961309076584,1.0111138326504137,0.9983146677902828,1.0111138326504137
120,0.9984699066772877,0.9990674233171327,1.011048381901423,0.9984699066772877,1.011048381901423
95,0.9984699066772877,0.9990674233171327,1.011048381901423,0.9984699066772877,1.011048381901423
235,0.9985664205456338,0.9990674233171327,1.011048381901423,0.9985664205456338,1.011048381901423
264,0.9989514023065326,0.9991735556526996,1.0111657834562786,0.9989514023065326,1.0111657834562786
182,0.9992901313360811,0.9994139325243444,1.0111138326504137,0.9992901313360811,1.0111138326504137
69,0.9992901313360811,0.9994139325243444,1.0111138326504137,0.9992901313360811,1.0111138326504137
260,0.9993601079479184,0.9994438995862505,1.0111138326504137,0.9993601079479184,1.0111138326504137
55,0.9996885236359293,0.9995180685393418,1.0111422291733467,0.9995180685393418,1.0111422291733467
34,0.9997207189012375,0.9995509161421566,1.0111138326504137,0.9995509161421566,1.0111138326504137
223,0.9996874313652878,0.9995657901385013,1.0110858892091472,0.9995657901385013,1.0110858892091472
101,1.000113515904075,0.9997665150511398,1.0111138326504137,0.9997665150511398,1.0111138326504137
92,1.0005369589846347,0.9999478017137094,1.0111138630940546,0.9999478017137094,1.0111138630940546
162,1.0005369928098589,0.9999478240033668,1.011113805469321,0.9999478240033668,1.011113805469321
37,1.0005372103554866,0.9999479203777992,1.0111138326504137,0.9999479203777992,1.0111138326504137
122,1.000537556329707,0.9999480887857455,1.011113843722682,0.9999480887857455,1.011113843722682
59,1.0005375314576326,0.9999480960849364,1.0111138326504137,0.9999480960849364,1.0111138326504137
151,1.0005375902260782,0.9999481071262059,1.0111138234133281,0.9999481071262059,1.0111138234133281
161,1.0005376242384367,0.9999481214213117,1.0111138415204632,0.9999481214213117,1.0111138415204632
229,1.0005376635453607,0.9999481418731025,1.0111138256155472,0.9999481418731025,1.0111138256155472
145,1.000537686028948,0.9999481504575279,1.0111138326504137,0.9999481504575279,1.0111138326504137
39,1.000537755217833,0.9999481839236746,1.0111138326504137,0.9999481839236746,1.0111138326504137
214,1.0005377809632872,0.9999482028787339,1.0111138326504137,0.9999482028787339,1.0111138326504137
168,1.0005378143337074,0.9999482171619919,1.0111138326504137,0.9999482171619919,1.0111138326504137
1,1.0005378977597632,0.9999482528701378,1.0111138326504137,0.9999482528701378,1.0111138326504137
19,1.0005378977597632,0.9999482528701378,1.0111138326504137,0.9999482528701378,1.0111138326504137
109,1.0005378977597632,0.9999482528701378,1.0111138326504137,0.9999482528701378,1.0111138326504137
218,1.0005378977597632,0.9999482528701378,1.0111138326504137,0.9999482528701378,1.0111138326504137
152,1.0005378977597632,0.9999482528701378,1.0111138326504137,0.9999482528701378,1.0111138326504137
33,1.0005378977597632,0.9999482528701378,1.0111138326504137,0.9999482528701378,1.0111138326504137
189,1.0005378977597632,0.9999482528701378,1.0111138326504137,0.9999482528701378,1.0111138326504137
267,0.9999482528701378,1.0111138326504137,1.0005378977597632,0.9999482528701378,1.0111138326504137
266,1.0011646897622706,1.0111138326504137,1.0031031171908544,1.0011646897622706,1.0111138326504137
268,1.001792845523789,1.0111138326504137,1.0057169798532333,1.001792845523789,1.0111138326504137
269,1.0030085206530832,1.0111138326504137,1.008275549904278,1.0030085206530832,1.0111138326504137
204,1.0038160806804397,1.006666936913531,1.011914924243615,1.0038160806804397,1.011914924243615
190,1.0099999998127565,1.0099999998998963,1.0100000000561427,1.0099999998127565,1.0100000000561427
270,1.01,1.01,1.01,1.01,1.01
